trattoria_core-0.4.1.dist-info/METADATA,sha256=_HwfoV14g7p4yiILYxiYDIpoT5EYzpLdyuC8yjqmApQ,448
trattoria_core-0.4.1.dist-info/WHEEL,sha256=MT3DwHY5NKmzjNPpPbf0eXsp-b7ApWmdqZ12k72Nobo,105
trattoria_core.cpython-36m-darwin.so,sha256=uqo432Cpu0DO29yvXPdzCaMXDeeG9DatgX0B294GfbA,518824
trattoria_core-0.4.1.dist-info/RECORD,,
