trattoria_core-0.4.0.dist-info/METADATA,sha256=5G-O3hIXRcZBWk3vRmaZAVIzYnBWUsxSCq2twRfs-Ds,448
trattoria_core-0.4.0.dist-info/WHEEL,sha256=MT3DwHY5NKmzjNPpPbf0eXsp-b7ApWmdqZ12k72Nobo,105
trattoria_core.cpython-36m-darwin.so,sha256=BfoxGpVk-DhxtzU6qjtN_Gn8j4njMppiJBrEE62qip8,518824
trattoria_core-0.4.0.dist-info/RECORD,,
